7WCF_ACP_A_401
     RDKit          3D

 31 33  0  0  0  0  0  0  0  0999 V2000
    4.6445  -17.1414  -25.2010 P   0  0  2  0  0  5  0  0  0  0  0  0
    4.1952  -18.4049  -25.8988 O   0  0  0  0  0  0  0  0  0  0  0  0
    3.7050  -16.9131  -23.8108 O   0  0  0  0  0  0  0  0  0  0  0  0
    4.4367  -15.8219  -26.2417 O   0  0  0  0  0  0  0  0  0  0  0  0
    6.5932  -18.4873  -23.3630 P   0  0  2  0  0  5  0  0  0  0  0  0
    6.1698  -17.8597  -22.0502 O   0  0  0  0  0  0  0  0  0  0  0  0
    8.2293  -18.9067  -23.2584 O   0  0  0  0  0  0  0  0  0  0  0  0
    6.3942  -17.2910  -24.7238 C   0  0  0  0  0  0  0  0  0  0  0  0
    6.7663  -21.2330  -23.6721 P   0  0  2  0  0  5  0  0  0  0  0  0
    7.7543  -21.1136  -24.8129 O   0  0  0  0  0  0  0  0  0  0  0  0
    5.8622  -22.6488  -23.8766 O   0  0  0  0  0  0  0  0  0  0  0  0
    5.7041  -19.9018  -23.7142 O   0  0  0  0  0  0  0  0  0  0  0  0
    7.5870  -21.2971  -22.1775 O   0  0  0  0  0  0  0  0  0  0  0  0
    6.8087  -22.0367  -21.2671 C   0  0  0  0  0  0  0  0  0  0  0  0
    7.6121  -23.2498  -20.7832 C   0  0  1  0  0  0  0  0  0  0  0  0
    8.9127  -23.1892  -21.3349 O   0  0  0  0  0  0  0  0  0  0  0  0
    7.7124  -23.2933  -19.2493 C   0  0  1  0  0  0  0  0  0  0  0  0
    7.4957  -24.5977  -18.7602 O   0  0  0  0  0  0  0  0  0  0  0  0
    9.1208  -22.8119  -18.9883 C   0  0  1  0  0  0  0  0  0  0  0  0
    9.7063  -23.4396  -17.8768 O   0  0  0  0  0  0  0  0  0  0  0  0
    9.8415  -23.1900  -20.2723 C   0  0  2  0  0  0  0  0  0  0  0  0
   10.9338  -22.2544  -20.5503 N   0  0  0  0  0  0  0  0  0  0  0  0
   10.8610  -21.0994  -21.2622 C   0  0  0  0  0  0  0  0  0  0  0  0
   12.0681  -20.4919  -21.4337 N   0  0  0  0  0  0  0  0  0  0  0  0
   12.9133  -21.3277  -20.7995 C   0  0  0  0  0  0  0  0  0  0  0  0
   14.2945  -21.2495  -20.6596 C   0  0  0  0  0  0  0  0  0  0  0  0
   15.0443  -20.1559  -21.1891 N   0  0  0  0  0  0  0  0  0  0  0  0
   14.9226  -22.2657  -19.9947 N   0  0  0  0  0  0  0  0  0  0  0  0
   14.2197  -23.3295  -19.4867 C   0  0  0  0  0  0  0  0  0  0  0  0
   12.8620  -23.3951  -19.6309 N   0  0  0  0  0  0  0  0  0  0  0  0
   12.2411  -22.3814  -20.2828 C   0  0  0  0  0  0  0  0  0  0  0  0
  1  2  2  0
  1  3  1  1
  1  4  1  0
  5  6  2  0
  5  7  1  1
  8  1  1  6
  5  8  1  0
  9 10  2  0
  9 11  1  6
  5 12  1  0
  9 12  1  0
  9 13  1  0
 14 13  1  1
 15 14  1  0
 15 16  1  6
 15 17  1  0
 17 18  1  6
 17 19  1  0
 19 20  1  1
 16 21  1  0
 19 21  1  0
 21 22  1  6
 22 23  1  0
 23 24  2  0
 24 25  1  0
 25 26  1  0
 26 27  1  0
 26 28  2  0
 28 29  1  0
 29 30  2  0
 22 31  1  0
 25 31  2  0
 30 31  1  0
M  END
$$$$
